#!/sbin/sh
#本文件供您在本地创建您自己的模块并且个人使用或测试

TMPDIR=/dev/tmp
MOUNTPATH=/dev/magisk_img

# 默认权限
umask 022

# 初始清理
rm -rf $TMPDIR 2>/dev/null
mkdir -p $TMPDIR

# 在加载util_functions之前回显
ui_print() { echo "$1"; }

require_new_magisk() {
  ui_print "***********************************"
  ui_print "      请安装最新版本的Magisk!       "
  ui_print "***********************************"
  exit 1
}

imageless_magisk() {
  [ $MAGISK_VER_CODE -gt 18100 ]
  return $?
}

##########################################################################################
# 环境
##########################################################################################

OUTFD=$2
ZIPFILE=$3

mount /data 2>/dev/null

# Load utility functions（加载功能）
if [ -f /data/adb/magisk/util_functions.sh ]; then
  . /data/adb/magisk/util_functions.sh
  NVBASE=/data/adb
else
  require_new_magisk
fi

# 准备可刷写的包(zips)
setup_flashable

# 挂载分区
mount_partitions

# 检测版本和体系结构
api_level_arch_detect

# 设置BusyBox和二进制文件
$BOOTMODE && boot_actions || recovery_actions

##########################################################################################
# 准备
##########################################################################################

# 提取常用文件
unzip -oj "$ZIPFILE" module.prop install.sh uninstall.sh 'common/*' -d $TMPDIR >&2

[ ! -f $TMPDIR/install.sh ] && abort "! 提取zip文件失败"
# 加载安装脚本
. $TMPDIR/install.sh

if imageless_magisk; then
  $BOOTMODE && MODDIRNAME=modules_update || MODDIRNAME=modules
  MODULEROOT=$NVBASE/$MODDIRNAME
else
  $BOOTMODE && IMGNAME=magisk_merge.img || IMGNAME=magisk.img
  IMG=$NVBASE/$IMGNAME
  request_zip_size_check "$ZIPFILE"
  mount_magisk_img
  MODULEROOT=$MOUNTPATH
fi

MODID=`grep_prop id $TMPDIR/module.prop`
MODPATH=$MODULEROOT/$MODID

print_modname

ui_print "******************************"
ui_print "      Powered by Magisk       "
ui_print "     @topjohnwu   吳泓霖      "
ui_print "******************************"

##########################################################################################
# 安装
##########################################################################################

# 创建模块路径
rm -rf $MODPATH 2>/dev/null
mkdir -p $MODPATH

on_install

# 删除占位文件(placeholder)
rm -f $MODPATH/system/placeholder 2>/dev/null

# 自定义（定制）卸载程序
[ -f $TMPDIR/uninstall.sh ] && cp -af $TMPDIR/uninstall.sh $MODPATH/uninstall.sh

# 自动挂载
if imageless_magisk; then
  $SKIPMOUNT && touch $MODPATH/skip_mount
else
  $SKIPMOUNT || touch $MODPATH/auto_mount
fi

# 安装prop文件
$PROPFILE && cp -af $TMPDIR/system.prop $MODPATH/system.prop

# 安装模块信息
cp -af $TMPDIR/module.prop $MODPATH/module.prop
if $BOOTMODE; then
  # 在Magisk Manager更新信息
  if imageless_magisk; then
    mktouch $NVBASE/modules/$MODID/update
    cp -af $TMPDIR/module.prop $NVBASE/modules/$MODID/module.prop
  else
    mktouch /sbin/.magisk/img/$MODID/update
    cp -af $TMPDIR/module.prop /sbin/.magisk/img/$MODID/module.prop
  fi
fi

# 安装post-fs-data模式脚本
$POSTFSDATA && cp -af $TMPDIR/post-fs-data.sh $MODPATH/post-fs-data.sh

# 安装service模式脚本
$LATESTARTSERVICE && cp -af $TMPDIR/service.sh $MODPATH/service.sh

# 处理需替换的文件夹
for TARGET in $REPLACE; do
  mktouch $MODPATH$TARGET/.replace
done

ui_print "- 设置权限"
set_permissions

##########################################################################################
# 最终处理
##########################################################################################

cd /
imageless_magisk || unmount_magisk_img
$BOOTMODE || recovery_cleanup
rm -rf $TMPDIR $MOUNTPATH

ui_print "- 完成"
exit 0
